case_E.m
function mpc = case_E
% Cap Trans x   Line b     BUs  bs
%% Created Date：2020-10-03
%% Author：Dirreck_3170105814_葛明阳

%% MATPOWER Case Format : Version 2
mpc.version = '2';

%% system MVA base
mpc.baseMVA = 100;

%% bus data
% bus_i  type  Pd  Qd  Gs  Bs  area  Vm  Va  baseKV  zone  Vmax  Vmin
% mpc.bus = [
%   1  1  160  80   0  0   1  1     0  1  1  1.1  0.9
%   2  1  200  100  0  0   1  1     0  1  1  1.1  0.9
%   3  1  370  130  0  0   1  1     0  1  1  1.1  0.9
%   4  1  0.0  0.0  0  0   1  1.05  0  1  1  1.1  0.9
%   5  1  0.0  0.0  0  0   1  1.05  0  1  1  1.1  0.9
%   6  1  
% ];
mpc.bus=[
    1	1	1197.6	250.2   0  0   1  1     0  1  1  1.1  0.9
    2   1   0       0       0  0   1  1     0  1  1  1.1  0.9
	3	1	322     2.4     0  0   1  1     0  1  1  1.1  0.9
	4	1	500     184     0  0   1  1     0  1  1  1.1  0.9
	5   1   0       0       0  0   1  1     0  1  1  1.1  0.9
    6   1   0       0       0  0   1  1     0  1  1  1.1  0.9
    7	1	233.8	84      0  0   1  1     0  1  1  1.1  0.9
    8	1	522     176.6   0  0   1  1     0  1  1  1.1  0.9
	9	1	6.5     -66.6   0  0   1  1     0  1  1  1.1  0.9
	10  1   0       0       0  0   1  1     0  1  1  1.1  0.9
    11  1   0       0       0  0   1  1     0  1  1  1.1  0.9
    12	1	8.53	88      0  0   1  1     0  1  1  1.1  0.9
	13  1   0       0       0  0   1  1     0  1  1  1.1  0.9
    14  1   0       0       0  0   1  1     0  1  1  1.1  0.9
    15	1	320     153     0  0   1  1     0  1  1  1.1  0.9
	16	1	329     32.3    0  0   1  1     0  1  1  1.1  0.9
	17  1   0       0       0  0   1  1     0  1  1  1.1  0.9
    18	1	158     30      0  0   1  1     0  1  1  1.1  0.9
	19  1   0       0       0  0   1  1     0  1  1  1.1  0.9
    20	1	680     103     0  0   1  1     0  1  1  1.1  0.9
	21	1	274     115     0  0   1  1     0  1  1  1.1  0.9
	22  1   0       0       0  0   1  1     0  1  1  1.1  0.9
    23	1	247.5	84.6    0  0   1  1     0  1  1  1.1  0.9
	24	1	308.6	-92.2   0  0   1  1     0  1  1  1.1  0.9
	25	1	224     47.2    0  0   1  1     0  1  1  1.1  0.9
	26	1	139     17      0  0   1  1     0  1  1  1.1  0.9
	27	1	281     75.5    0  0   1  1     0  1  1  1.1  0.9
	28	1	206     27.6    0  0   1  1     0  1  1  1.1  0.9
	29	1	283.5	26.9    0  0   1  1     0  1  1  1.1  0.9
	30  2	0       0       0  0   1  1     0  1  1  1.1  0.9
	31  2	0       0       0  0   1  1     0  1  1  1.1  0.9
	32  2	0       0       0  0   1  1     0  1  1  1.1  0.9
	33  2	0       0       0  0   1  1     0  1  1  1.1  0.9
	34  2	0       0       0  0   1  1     0  1  1  1.1  0.9
	35  2	0       0       0  0   1  1     0  1  1  1.1  0.9
	36  2	0       0       0  0   1  1     0  1  1  1.1  0.9
	37  2	0       0       0  0   1  1     0  1  1  1.1  0.9
	38  2	0       0       0  0   1  1     0  1  1  1.1  0.9
	39  3   0       0       0  0   1  1     0  1  1  1.1  0.9
];
%% generator data
% bus  Pg  Qg  Qmax  Qmin Vg  mBase  status  Pmax  Pmin  Pc1  Pc2  Qc1min  Qc1max  Qc2min  Qc2max  ramp_agc  ramp_10  ramp_30  ramp_q  apf
mpc.gen = [
    30  250     0   0   0   1.0499    100  1   0  0  0  0  0  0  0  0  0  0  0  0  0
    31  1000    0   0   0   1.0300    100  1   0  0  0  0  0  0  0  0  0  0  0  0  0
    32  650     0   0   0	0.9841    100  1   0  0  0  0  0  0  0  0  0  0  0  0  0
    33	632     0   0   0	0.9972    100  1   0  0  0  0  0  0  0  0  0  0  0  0  0
    34	508     0   0   0	1.0123    100  1   0  0  0  0  0  0  0  0  0  0  0  0  0
    35	650     0   0   0	1.0494    100  1   0  0  0  0  0  0  0  0  0  0  0  0  0
    36	560     0   0   0	1.0636    100  1   0  0  0  0  0  0  0  0  0  0  0  0  0
    37	540     0   0   0	1.0275    100  1   0  0  0  0  0  0  0  0  0  0  0  0  0
    38	830     0   0   0	1.0265    100  1   0  0  0  0  0  0  0  0  0  0  0  0  0
	39  0       0   0   0   0.9820    100  1   0  0  0  0  0  0  0  0  0  0  0  0  0
];
%% branch data
% fbus  tbus  r  x  b  rateA  rateB  rateC  ratio  angle  status  angmin  angmax
mpc.branch=[
	1	2	0.0035	0.0411	1.3974  0   0   0   0       0   1    -360	360;
	1	31	0.001	0.025	1.5000  0   0   0   0       0   1    -360	360;
	2	3	0.0013	0.0151	0.5144  0   0   0   0       0   1    -360	360;
	2	25	0.007	0.0086	0.2920  0   0   0   0       0   1    -360	360;
	3	4	0.0013	0.0213	0.4428  0   0   0   0       0   1    -360	360;
	3	18	0.0011	0.0133	0.4276  0   0   0   0       0   1    -360	360;
	4	5	0.0008	0.0128	0.2684  0   0   0   0       0   1    -360	360;
	4	14	0.0008	0.0129	0.2764  0   0   0   0       0   1    -360	360;
	5	6	0.0002	0.0026	0.0868  0   0   0   0       0   1    -360	360;
	5	8	0.0008	0.0112	0.2952  0   0   0   0       0   1    -360	360;
	6	7	0.0006	0.0092	0.2260  0   0   0   0       0   1    -360	360;
	6	11	0.0007	0.0082	0.2778  0   0   0   0       0   1    -360	360;
	7	8	0.0004	0.0046	0.1560  0   0   0   0       0   1    -360	360;
	8	9	0.0023	0.0363	0.7608  0   0   0   0       0   1    -360	360;
	9	31	0.001	0.025	2.4000  0   0   0   0       0   1    -360	360;
	10	11	0.0004	0.0043	0.1458  0   0   0   0       0   1    -360	360;
	10	13	0.0004	0.0043	0.1458  0   0   0   0       0   1    -360	360;
	13	14	0.0009	0.0101	0.3446  0   0   0   0       0   1    -360	360;
	14	15	0.0018	0.0217	0.7320  0   0   0   0       0   1    -360	360;
	15	16	0.0009	0.0094	0.3420  0   0   0   0       0   1    -360	360;
	16	17	0.0007	0.0089	0.2684  0   0   0   0       0   1    -360	360;
	16	19	0.0016	0.0195	0.6080  0   0   0   0       0   1    -360	360;
	16	21	0.0008	0.0135	0.5096  0   0   0   0       0   1    -360	360;
	16	24	0.0003	0.0059	0.1360  0   0   0   0       0   1    -360	360;
	17	18	0.0007	0.0082	0.2638  0   0   0   0       0   1    -360	360;
	17	27	0.0013	0.0173	0.6432  0   0   0   0       0   1    -360	360;
	21	22	0.0008	0.014	0.5130  0   0   0   0       0   1    -360	360;
	22	23	0.0006	0.0096	0.3692  0   0   0   0       0   1    -360	360;
	23	24	0.0022	0.035	0.7220  0   0   0   0       0   1    -360	360;
	25	26	0.0032	0.0323	1.0620  0   0   0   0       0   1    -360	360;
	26	27	0.0014	0.0147	0.4792  0   0   0   0       0   1    -360	360;
	26	28	0.0043	0.0474	1.5604  0   0   0   0       0   1    -360	360;
	26	29	0.0057	0.0625	2.0580  0   0   0   0       0   1    -360	360;
	28	29	0.0014	0.0151	0.4980  0   0   0   0       0   1    -360	360;
    2   30  0.0000  0.0181  0       0   0   0   1.025   0   1     -360	360;
    6   39  0.0000  0.0250  0       0   0   0   1.070   0   1     -360	360;
    10  32  0.0000  0.0200  0       0   0   0   1.070   0   1     -360	360;
    12  11  0.0016  0.0435  0       0	0   0   1.006   0   1     -360	360;
    12  13  0.0016  0.0435  0       0	0   0   1.006   0   1     -360	360;
    19  20  0.0007  0.0138  0       0   0   0   1.060   0   1     -360	360;
    19  33  0.0007  0.0142  0       0   0   0   1.070   0   1     -360	360;
    20  34  0.0009  0.0180  0       0   0   0   1.009   0   1     -360	360;
    22  35  0.0000  0.0143  0       0   0   0   1.025   0   1     -360	360;
    23  36  0.0005  0.0272  0       0   0   0   1.000   0   1     -360	360;
    25  37  0.0006  0.0232  0       0   0   0   1.025   0   1     -360	360;
    29  38  0.0008  0.0156  0       0   0   0   1.025   0   1     -360	360;
    ];
%% 
% mpc.gencost=[
%     2   0   0   3   0.00504395 2.004335  1200.6485
%     2   0   0   3   0.020055   5.00746   1857.201
% ];